[General]
network = TreeCongestion

sim-time-limit =  1min

**.S**.pongDelay.result-recording-modes = +histogram,min,max,mean,count
**.R**.pingDelay.result-recording-modes = +histogram,min,max,mean,count

**.relayIpc.difName = "Tree"
**.ipcProcess1.difName = "Tree"

**.C.relayIpc.ipcAddress = "C"
**.Q.relayIpc.ipcAddress = "Q"
**.T0.relayIpc.ipcAddress = "T.0"
**.S0_0.ipcProcess1.ipcAddress = "S.0.0"
**.R0_0.ipcProcess1.ipcAddress = "R.0.0"
**.S0_1.ipcProcess1.ipcAddress = "S.0.1"
**.R0_1.ipcProcess1.ipcAddress = "R.0.1"
**.S0_2.ipcProcess1.ipcAddress = "S.0.2"
**.R0_2.ipcProcess1.ipcAddress = "R.0.2"
**.S0_3.ipcProcess1.ipcAddress = "S.0.3"
**.R0_3.ipcProcess1.ipcAddress = "R.0.3"

**.C.ipcProcess[0].difName = "CQ"
**.Q.ipcProcess[0].difName = "CQ"
**.C.ipcProcess[1].difName = "C0"
**.T0.ipcProcess[0].difName = "C0"
**.T0.ipcProcess[1].difName = "T0"
**.S0_0.ipcProcess0.difName = "T0"
**.Q.ipcProcess[1].difName = "Q0"
**.R0_0.ipcProcess0.difName = "Q0"
**.T0.ipcProcess[2].difName = "T1"
**.S0_1.ipcProcess0.difName = "T1"
**.Q.ipcProcess[2].difName = "Q1"
**.R0_1.ipcProcess0.difName = "Q1"
**.T0.ipcProcess[3].difName = "T2"
**.S0_2.ipcProcess0.difName = "T2"
**.Q.ipcProcess[3].difName = "Q2"
**.R0_2.ipcProcess0.difName = "Q2"
**.T0.ipcProcess[4].difName = "T3"
**.S0_3.ipcProcess0.difName = "T3"
**.Q.ipcProcess[4].difName = "Q3"
**.R0_3.ipcProcess0.difName = "Q3"

**.C.ipcProcess[*].ipcAddress = "C"
**.Q.ipcProcess[*].ipcAddress = "Q"
**.T0.ipcProcess[*].ipcAddress = "T0"
**.S0_0.ipcProcess0.ipcAddress = "S0_0"
**.R0_0.ipcProcess0.ipcAddress = "R0_0"
**.S0_1.ipcProcess0.ipcAddress = "S0_1"
**.R0_1.ipcProcess0.ipcAddress = "R0_1"
**.S0_2.ipcProcess0.ipcAddress = "S0_2"
**.R0_2.ipcProcess0.ipcAddress = "R0_2"
**.S0_3.ipcProcess0.ipcAddress = "S0_3"
**.R0_3.ipcProcess0.ipcAddress = "R0_3"

**.ipcProcess1.resourceAllocator.pdufgPolicyName = "SingleDomainGenerator"
**.ipcProcess1.relayAndMux.ForwardingPolicyName = "MiniTable"
**.ipcProcess1.routingPolicyName = "DomainRouting"

**.relayIpc.resourceAllocator.pdufgPolicyName = "SingleDomainGenerator"
**.relayIpc.relayAndMux.ForwardingPolicyName = "MiniTable"
**.relayIpc.routingPolicyName = "DomainRouting"

**.difAllocator.configData = xmldoc("config.xml", "Configuration/DA")
**.difAllocator.directory.configData = xmldoc("config.xml", "Configuration/DA")

**.ipcProcess[*].resourceAllocator.ra.qoscubesData = xmldoc("QoS.xml", "Configuration/QoSCubesSetShim")
**.relayIpc.resourceAllocator.ra.qoscubesData = xmldoc("QoS.xml", "Configuration/QoSCubesSet")
**.ipcProcess0.resourceAllocator.ra.qoscubesData = xmldoc("QoS.xml", "Configuration/QoSCubesSetShim")
**.ipcProcess1.resourceAllocator.ra.qoscubesData = xmldoc("QoS.xml", "Configuration/QoSCubesSet")

**.ra.preallocation = xmldoc("config.xml", "Configuration/ConnectionSets/ConnectionSet[@id='all']/")

**.iae.aeName = "Stream"
**.applicationEntity.aeType = "AESender"

**.S0_0.applicationProcess1.apName = "App_S0_0"
**.R0_0.applicationProcess1.apName = "App_R0_0"
**.S0_1.applicationProcess1.apName = "App_S0_1"
**.R0_1.applicationProcess1.apName = "App_R0_1"
**.S0_2.applicationProcess1.apName = "App_S0_2"
**.R0_2.applicationProcess1.apName = "App_R0_2"
**.S0_3.applicationProcess1.apName = "App_S0_3"
**.R0_3.applicationProcess1.apName = "App_R0_3"

**.R*.applicationProcess1.applicationEntity.iae.startAt = 0
**.R*.applicationProcess1.applicationEntity.iae.stopAt = 0

**.S*.applicationProcess1.applicationEntity.iae.startAt = 10s
**.S*.applicationProcess1.applicationEntity.iae.stopAt = 30s
**.S*.applicationProcess1.applicationEntity.iae.sendAfter = 10s
**.S*.applicationProcess1.applicationEntity.iae.rate = 0.01
**.S*.applicationProcess1.applicationEntity.iae.ratevar = 0.002
**.S*.applicationProcess1.applicationEntity.iae.size = 1024
**.S*.applicationProcess1.applicationEntity.iae.sizevar = 300

**.S0_0.applicationProcess1.applicationEntity.iae.dstApName = "App_R0_0"
**.S0_1.applicationProcess1.applicationEntity.iae.dstApName = "App_R0_1"
**.S0_2.applicationProcess1.applicationEntity.iae.dstApName = "App_R0_2"
**.S0_3.applicationProcess1.applicationEntity.iae.dstApName = "App_R0_3"

**.S*_0.applicationProcess1.applicationEntity.iae.delay = 15us
**.S*_0.applicationProcess1.applicationEntity.iae.pduDroppingProbability = 0.01
**.S*_1.applicationProcess1.applicationEntity.iae.delay = 15us
**.S*_1.applicationProcess1.applicationEntity.iae.pduDroppingProbability = 0.1
**.S*_2.applicationProcess1.applicationEntity.iae.delay = 150us
**.S*_2.applicationProcess1.applicationEntity.iae.pduDroppingProbability = 0.01
**.S*_3.applicationProcess1.applicationEntity.iae.delay = 150us
**.S*_3.applicationProcess1.applicationEntity.iae.pduDroppingProbability = 0.1

**.S*.ipcProcess1.flowAllocator.newFlowReqPolicyType = "QoSCubeComparerMin"
**.R*.ipcProcess1.flowAllocator.newFlowReqPolicyType = "QoSCubeComparerMin"
**.relayIpc.flowAllocator.newFlowReqPolicyType = "QoSCubeComparerMin"

**.S*.applicationProcess1.applicationEntity.iae.printAtEnd = true

[Config BE]
**.S*.ipcProcess1.**.queueAllocPolicyName = "SingleQueue"
**.R*.ipcProcess1.**.queueAllocPolicyName = "SingleQueue"
**.relayIpc.**.queueAllocPolicyName = "SingleQueue"
**.S*.ipcProcess1.**.queueIdGenName = "SingleID"
**.R*.ipcProcess1.**.queueIdGenName = "SingleID"
**.relayIpc.**.queueIdGenName = "SingleID"

**.S*.ipcProcess0.**.defaultThreshQLength = 100
**.R*.ipcProcess0.**.defaultThreshQLength = 100
**.relayIpc.**.defaultThreshQLength = 100
**.S*.ipcProcess1.**.defaultMaxQLength =  100
**.R*.ipcProcess1.**.defaultMaxQLength = 100
**.relayIpc.**.defaultThreshQLength = 100

[Config DL]
**.S*.ipcProcess1.**.queueAllocPolicyName = "QueuePerNCU"
**.R*.ipcProcess1.**.queueAllocPolicyName = "QueuePerNCU"
**.relayIpc.**.queueAllocPolicyName = "QueuePerNCU"
**.S*.ipcProcess1.**.queueIdGenName = "IDPerNCU"
**.R*.ipcProcess1.**.queueIdGenName = "IDPerNCU"
**.relayIpc.**.queueIdGenName = "IDPerNCU"
**.S*.ipcProcess1.**.schedPolicyName = "DL"
**.R*.ipcProcess1.**.schedPolicyName = "DL"
**.relayIpc.**.schedPolicyName = "DL"
**.S*.ipcProcess1.**.maxQPolicyName = "DLMaxQ"
**.R*.ipcProcess1.**.maxQPolicyName = "DLMaxQ"
**.relayIpc.**.maxQPolicyName = "DLMaxQ"
**.S*.ipcProcess1.**.qMonitorPolicyName = "DLMonitor"
**.R*.ipcProcess1.**.qMonitorPolicyName = "DLMonitor"
**.relayIpc.**.qMonitorPolicyName = "DLMonitor"
**.S*.ipcProcess1.**.cuData = xmldoc("CU.xml", "Configuration/CU")
**.R*.ipcProcess1.**.cuData = xmldoc("CU.xml", "Configuration/CU")
**.relayIpc.**.cuData = xmldoc("CU.xml", "Configuration/CU")
**.S*.ipcProcess1.**.qos2cuData = xmldoc("CU.xml", "Configuration/qos2cu")
**.R*.ipcProcess1.**.qos2cuData = xmldoc("CU.xml", "Configuration/qos2cu")
**.relayIpc.**.qos2cuData = xmldoc("CU.xml", "Configuration/qos2cu")


**.S*.ipcProcess1.**.defaultThreshQLength = 0
**.R*.ipcProcess1.**.defaultThreshQLength = 0
**.relayIpc.**.defaultThreshQLength = 0