[General]
network = TreeCongestion

sim-time-limit =  1min

**.S**.pongDelay.result-recording-modes = +histogram,min,max,mean,count
**.R**.pingDelay.result-recording-modes = +histogram,min,max,mean,count

**.relayIpc.difName = "Tree"
**.ipcProcess1.difName = "Tree"

**.C.relayIpc.ipcAddress = "C"
**.Q.relayIpc.ipcAddress = "Q"
**.T0.relayIpc.ipcAddress = "T.0"
**.S0_0.ipcProcess1.ipcAddress = "S.0.0"
**.R0_0.ipcProcess1.ipcAddress = "R.0.0"
**.S0_1.ipcProcess1.ipcAddress = "S.0.1"
**.R0_1.ipcProcess1.ipcAddress = "R.0.1"
**.S0_2.ipcProcess1.ipcAddress = "S.0.2"
**.R0_2.ipcProcess1.ipcAddress = "R.0.2"
**.S0_3.ipcProcess1.ipcAddress = "S.0.3"
**.R0_3.ipcProcess1.ipcAddress = "R.0.3"
**.T1.relayIpc.ipcAddress = "T.1"
**.S1_0.ipcProcess1.ipcAddress = "S.1.0"
**.R1_0.ipcProcess1.ipcAddress = "R.1.0"
**.S1_1.ipcProcess1.ipcAddress = "S.1.1"
**.R1_1.ipcProcess1.ipcAddress = "R.1.1"
**.S1_2.ipcProcess1.ipcAddress = "S.1.2"
**.R1_2.ipcProcess1.ipcAddress = "R.1.2"
**.S1_3.ipcProcess1.ipcAddress = "S.1.3"
**.R1_3.ipcProcess1.ipcAddress = "R.1.3"
**.T2.relayIpc.ipcAddress = "T.2"
**.S2_0.ipcProcess1.ipcAddress = "S.2.0"
**.R2_0.ipcProcess1.ipcAddress = "R.2.0"
**.S2_1.ipcProcess1.ipcAddress = "S.2.1"
**.R2_1.ipcProcess1.ipcAddress = "R.2.1"
**.S2_2.ipcProcess1.ipcAddress = "S.2.2"
**.R2_2.ipcProcess1.ipcAddress = "R.2.2"
**.S2_3.ipcProcess1.ipcAddress = "S.2.3"
**.R2_3.ipcProcess1.ipcAddress = "R.2.3"
**.T3.relayIpc.ipcAddress = "T.3"
**.S3_0.ipcProcess1.ipcAddress = "S.3.0"
**.R3_0.ipcProcess1.ipcAddress = "R.3.0"
**.S3_1.ipcProcess1.ipcAddress = "S.3.1"
**.R3_1.ipcProcess1.ipcAddress = "R.3.1"
**.S3_2.ipcProcess1.ipcAddress = "S.3.2"
**.R3_2.ipcProcess1.ipcAddress = "R.3.2"
**.S3_3.ipcProcess1.ipcAddress = "S.3.3"
**.R3_3.ipcProcess1.ipcAddress = "R.3.3"

**.C.ipcProcess[0].difName = "CQ"
**.Q.ipcProcess[0].difName = "CQ"
**.C.ipcProcess[1].difName = "C0"
**.T0.ipcProcess[0].difName = "C0"
**.T0.ipcProcess[1].difName = "T0"
**.S0_0.ipcProcess0.difName = "T0"
**.Q.ipcProcess[1].difName = "Q0"
**.R0_0.ipcProcess0.difName = "Q0"
**.T0.ipcProcess[2].difName = "T1"
**.S0_1.ipcProcess0.difName = "T1"
**.Q.ipcProcess[2].difName = "Q1"
**.R0_1.ipcProcess0.difName = "Q1"
**.T0.ipcProcess[3].difName = "T2"
**.S0_2.ipcProcess0.difName = "T2"
**.Q.ipcProcess[3].difName = "Q2"
**.R0_2.ipcProcess0.difName = "Q2"
**.T0.ipcProcess[4].difName = "T3"
**.S0_3.ipcProcess0.difName = "T3"
**.Q.ipcProcess[4].difName = "Q3"
**.R0_3.ipcProcess0.difName = "Q3"
**.C.ipcProcess[2].difName = "C1"
**.T1.ipcProcess[0].difName = "C1"
**.T1.ipcProcess[1].difName = "T0"
**.S1_0.ipcProcess0.difName = "T0"
**.Q.ipcProcess[5].difName = "Q4"
**.R1_0.ipcProcess0.difName = "Q4"
**.T1.ipcProcess[2].difName = "T1"
**.S1_1.ipcProcess0.difName = "T1"
**.Q.ipcProcess[6].difName = "Q5"
**.R1_1.ipcProcess0.difName = "Q5"
**.T1.ipcProcess[3].difName = "T2"
**.S1_2.ipcProcess0.difName = "T2"
**.Q.ipcProcess[7].difName = "Q6"
**.R1_2.ipcProcess0.difName = "Q6"
**.T1.ipcProcess[4].difName = "T3"
**.S1_3.ipcProcess0.difName = "T3"
**.Q.ipcProcess[8].difName = "Q7"
**.R1_3.ipcProcess0.difName = "Q7"
**.C.ipcProcess[3].difName = "C2"
**.T2.ipcProcess[0].difName = "C2"
**.T2.ipcProcess[1].difName = "T0"
**.S2_0.ipcProcess0.difName = "T0"
**.Q.ipcProcess[9].difName = "Q8"
**.R2_0.ipcProcess0.difName = "Q8"
**.T2.ipcProcess[2].difName = "T1"
**.S2_1.ipcProcess0.difName = "T1"
**.Q.ipcProcess[10].difName = "Q9"
**.R2_1.ipcProcess0.difName = "Q9"
**.T2.ipcProcess[3].difName = "T2"
**.S2_2.ipcProcess0.difName = "T2"
**.Q.ipcProcess[11].difName = "Q10"
**.R2_2.ipcProcess0.difName = "Q10"
**.T2.ipcProcess[4].difName = "T3"
**.S2_3.ipcProcess0.difName = "T3"
**.Q.ipcProcess[12].difName = "Q11"
**.R2_3.ipcProcess0.difName = "Q11"
**.C.ipcProcess[4].difName = "C3"
**.T3.ipcProcess[0].difName = "C3"
**.T3.ipcProcess[1].difName = "T0"
**.S3_0.ipcProcess0.difName = "T0"
**.Q.ipcProcess[13].difName = "Q12"
**.R3_0.ipcProcess0.difName = "Q12"
**.T3.ipcProcess[2].difName = "T1"
**.S3_1.ipcProcess0.difName = "T1"
**.Q.ipcProcess[14].difName = "Q13"
**.R3_1.ipcProcess0.difName = "Q13"
**.T3.ipcProcess[3].difName = "T2"
**.S3_2.ipcProcess0.difName = "T2"
**.Q.ipcProcess[15].difName = "Q14"
**.R3_2.ipcProcess0.difName = "Q14"
**.T3.ipcProcess[4].difName = "T3"
**.S3_3.ipcProcess0.difName = "T3"
**.Q.ipcProcess[16].difName = "Q15"
**.R3_3.ipcProcess0.difName = "Q15"

**.C.ipcProcess[*].ipcAddress = "C"
**.Q.ipcProcess[*].ipcAddress = "Q"
**.T0.ipcProcess[*].ipcAddress = "T0"
**.S0_0.ipcProcess0.ipcAddress = "S0_0"
**.R0_0.ipcProcess0.ipcAddress = "R0_0"
**.S0_1.ipcProcess0.ipcAddress = "S0_1"
**.R0_1.ipcProcess0.ipcAddress = "R0_1"
**.S0_2.ipcProcess0.ipcAddress = "S0_2"
**.R0_2.ipcProcess0.ipcAddress = "R0_2"
**.S0_3.ipcProcess0.ipcAddress = "S0_3"
**.R0_3.ipcProcess0.ipcAddress = "R0_3"
**.T1.ipcProcess[*].ipcAddress = "T1"
**.S1_0.ipcProcess0.ipcAddress = "S1_0"
**.R1_0.ipcProcess0.ipcAddress = "R1_0"
**.S1_1.ipcProcess0.ipcAddress = "S1_1"
**.R1_1.ipcProcess0.ipcAddress = "R1_1"
**.S1_2.ipcProcess0.ipcAddress = "S1_2"
**.R1_2.ipcProcess0.ipcAddress = "R1_2"
**.S1_3.ipcProcess0.ipcAddress = "S1_3"
**.R1_3.ipcProcess0.ipcAddress = "R1_3"
**.T2.ipcProcess[*].ipcAddress = "T2"
**.S2_0.ipcProcess0.ipcAddress = "S2_0"
**.R2_0.ipcProcess0.ipcAddress = "R2_0"
**.S2_1.ipcProcess0.ipcAddress = "S2_1"
**.R2_1.ipcProcess0.ipcAddress = "R2_1"
**.S2_2.ipcProcess0.ipcAddress = "S2_2"
**.R2_2.ipcProcess0.ipcAddress = "R2_2"
**.S2_3.ipcProcess0.ipcAddress = "S2_3"
**.R2_3.ipcProcess0.ipcAddress = "R2_3"
**.T3.ipcProcess[*].ipcAddress = "T3"
**.S3_0.ipcProcess0.ipcAddress = "S3_0"
**.R3_0.ipcProcess0.ipcAddress = "R3_0"
**.S3_1.ipcProcess0.ipcAddress = "S3_1"
**.R3_1.ipcProcess0.ipcAddress = "R3_1"
**.S3_2.ipcProcess0.ipcAddress = "S3_2"
**.R3_2.ipcProcess0.ipcAddress = "R3_2"
**.S3_3.ipcProcess0.ipcAddress = "S3_3"
**.R3_3.ipcProcess0.ipcAddress = "R3_3"

**.ipcProcess1.resourceAllocator.pdufgPolicyName = "SingleDomainGenerator"
**.ipcProcess1.relayAndMux.ForwardingPolicyName = "MiniTable"
**.ipcProcess1.routingPolicyName = "DomainRouting"

**.relayIpc.resourceAllocator.pdufgPolicyName = "SingleDomainGenerator"
**.relayIpc.relayAndMux.ForwardingPolicyName = "MiniTable"
**.relayIpc.routingPolicyName = "DomainRouting"

**.difAllocator.configData = xmldoc("config.xml", "Configuration/DA")
**.difAllocator.directory.configData = xmldoc("config.xml", "Configuration/DA")

**.ipcProcess[*].resourceAllocator.ra.qoscubesData = xmldoc("QoS.xml", "Configuration/QoSCubesSetShim")
**.relayIpc.resourceAllocator.ra.qoscubesData = xmldoc("QoS.xml", "Configuration/QoSCubesSet")
**.ipcProcess0.resourceAllocator.ra.qoscubesData = xmldoc("QoS.xml", "Configuration/QoSCubesSetShim")
**.ipcProcess1.resourceAllocator.ra.qoscubesData = xmldoc("QoS.xml", "Configuration/QoSCubesSet")

**.ra.preallocation = xmldoc("config.xml", "Configuration/ConnectionSets/ConnectionSet[@id='all']/")

**.iae.aeName = "Stream"
**.applicationEntity.aeType = "AESender"

**.S0_0.applicationProcess1.apName = "App_S0_0"
**.R0_0.applicationProcess1.apName = "App_R0_0"
**.S0_1.applicationProcess1.apName = "App_S0_1"
**.R0_1.applicationProcess1.apName = "App_R0_1"
**.S0_2.applicationProcess1.apName = "App_S0_2"
**.R0_2.applicationProcess1.apName = "App_R0_2"
**.S0_3.applicationProcess1.apName = "App_S0_3"
**.R0_3.applicationProcess1.apName = "App_R0_3"
**.S1_0.applicationProcess1.apName = "App_S1_0"
**.R1_0.applicationProcess1.apName = "App_R1_0"
**.S1_1.applicationProcess1.apName = "App_S1_1"
**.R1_1.applicationProcess1.apName = "App_R1_1"
**.S1_2.applicationProcess1.apName = "App_S1_2"
**.R1_2.applicationProcess1.apName = "App_R1_2"
**.S1_3.applicationProcess1.apName = "App_S1_3"
**.R1_3.applicationProcess1.apName = "App_R1_3"
**.S2_0.applicationProcess1.apName = "App_S2_0"
**.R2_0.applicationProcess1.apName = "App_R2_0"
**.S2_1.applicationProcess1.apName = "App_S2_1"
**.R2_1.applicationProcess1.apName = "App_R2_1"
**.S2_2.applicationProcess1.apName = "App_S2_2"
**.R2_2.applicationProcess1.apName = "App_R2_2"
**.S2_3.applicationProcess1.apName = "App_S2_3"
**.R2_3.applicationProcess1.apName = "App_R2_3"
**.S3_0.applicationProcess1.apName = "App_S3_0"
**.R3_0.applicationProcess1.apName = "App_R3_0"
**.S3_1.applicationProcess1.apName = "App_S3_1"
**.R3_1.applicationProcess1.apName = "App_R3_1"
**.S3_2.applicationProcess1.apName = "App_S3_2"
**.R3_2.applicationProcess1.apName = "App_R3_2"
**.S3_3.applicationProcess1.apName = "App_S3_3"
**.R3_3.applicationProcess1.apName = "App_R3_3"

**.R*.applicationProcess1.applicationEntity.iae.startAt = 0
**.R*.applicationProcess1.applicationEntity.iae.stopAt = 0

**.S*.applicationProcess1.applicationEntity.iae.startAt = 10s
**.S*.applicationProcess1.applicationEntity.iae.stopAt = 30s
**.S*.applicationProcess1.applicationEntity.iae.sendAfter = 10s
**.S*.applicationProcess1.applicationEntity.iae.rate = 0.01
**.S*.applicationProcess1.applicationEntity.iae.ratevar = 0.002
**.S*.applicationProcess1.applicationEntity.iae.size = 1024
**.S*.applicationProcess1.applicationEntity.iae.sizevar = 300

**.S0_0.applicationProcess1.applicationEntity.iae.dstApName = "App_R0_0"
**.S0_1.applicationProcess1.applicationEntity.iae.dstApName = "App_R0_1"
**.S0_2.applicationProcess1.applicationEntity.iae.dstApName = "App_R0_2"
**.S0_3.applicationProcess1.applicationEntity.iae.dstApName = "App_R0_3"
**.S1_0.applicationProcess1.applicationEntity.iae.dstApName = "App_R1_0"
**.S1_1.applicationProcess1.applicationEntity.iae.dstApName = "App_R1_1"
**.S1_2.applicationProcess1.applicationEntity.iae.dstApName = "App_R1_2"
**.S1_3.applicationProcess1.applicationEntity.iae.dstApName = "App_R1_3"
**.S2_0.applicationProcess1.applicationEntity.iae.dstApName = "App_R2_0"
**.S2_1.applicationProcess1.applicationEntity.iae.dstApName = "App_R2_1"
**.S2_2.applicationProcess1.applicationEntity.iae.dstApName = "App_R2_2"
**.S2_3.applicationProcess1.applicationEntity.iae.dstApName = "App_R2_3"
**.S3_0.applicationProcess1.applicationEntity.iae.dstApName = "App_R3_0"
**.S3_1.applicationProcess1.applicationEntity.iae.dstApName = "App_R3_1"
**.S3_2.applicationProcess1.applicationEntity.iae.dstApName = "App_R3_2"
**.S3_3.applicationProcess1.applicationEntity.iae.dstApName = "App_R3_3"

**.S*_0.applicationProcess1.applicationEntity.iae.delay = 15us
**.S*_0.applicationProcess1.applicationEntity.iae.pduDroppingProbability = 0.01
**.S*_1.applicationProcess1.applicationEntity.iae.delay = 15us
**.S*_1.applicationProcess1.applicationEntity.iae.pduDroppingProbability = 0.1
**.S*_2.applicationProcess1.applicationEntity.iae.delay = 150us
**.S*_2.applicationProcess1.applicationEntity.iae.pduDroppingProbability = 0.01
**.S*_3.applicationProcess1.applicationEntity.iae.delay = 150us
**.S*_3.applicationProcess1.applicationEntity.iae.pduDroppingProbability = 0.1

**.S*.ipcProcess1.flowAllocator.newFlowReqPolicyType = "QoSCubeComparerMin"
**.R*.ipcProcess1.flowAllocator.newFlowReqPolicyType = "QoSCubeComparerMin"
**.relayIpc.flowAllocator.newFlowReqPolicyType = "QoSCubeComparerMin"

**.S*.applicationProcess1.applicationEntity.iae.printAtEnd = true

[Config BE]
**.S*.ipcProcess1.**.queueAllocPolicyName = "SingleQueue"
**.R*.ipcProcess1.**.queueAllocPolicyName = "SingleQueue"
**.relayIpc.**.queueAllocPolicyName = "SingleQueue"
**.S*.ipcProcess1.**.queueIdGenName = "SingleID"
**.R*.ipcProcess1.**.queueIdGenName = "SingleID"
**.relayIpc.**.queueIdGenName = "SingleID"

[Config DL]
**.S*.ipcProcess1.**.queueAllocPolicyName = "QueuePerNCU"
**.R*.ipcProcess1.**.queueAllocPolicyName = "QueuePerNCU"
**.relayIpc.**.queueAllocPolicyName = "QueuePerNCU"
**.S*.ipcProcess1.**.queueIdGenName = "IDPerNCU"
**.R*.ipcProcess1.**.queueIdGenName = "IDPerNCU"
**.relayIpc.**.queueIdGenName = "IDPerNCU"
**.S*.ipcProcess1.**.schedPolicyName = "DL"
**.R*.ipcProcess1.**.schedPolicyName = "DL"
**.relayIpc.**.schedPolicyName = "DL"
**.S*.ipcProcess1.**.maxQPolicyName = "DLMaxQ"
**.R*.ipcProcess1.**.maxQPolicyName = "DLMaxQ"
**.relayIpc.**.maxQPolicyName = "DLMaxQ"
**.S*.ipcProcess1.**.qMonitorPolicyName = "DLMonitor"
**.R*.ipcProcess1.**.qMonitorPolicyName = "DLMonitor"
**.relayIpc.**.qMonitorPolicyName = "DLMonitor"
